@<TRIPOS>MOLECULE
*****
 13 12 0 0 0
SMALL
GASTEIGER

@<TRIPOS>ATOM
      1 CB          0.9832    0.0496   -0.0943 C.3     1  ALA1       -0.0395
      2 CA          2.5048    0.0438   -0.1188 C.3     1  ALA1        0.1004
      3 C           3.0469    0.1281   -1.5587 C.2     1  ALA1        0.3214
      4 O           3.7686    1.0352   -1.9594 O.2     1  ALA1       -0.2493
      5 OXT         2.6963   -0.9018   -2.3615 O.3     1  ALA1       -0.4795
      6 N           2.9802    1.2023    0.6714 N.3     1  ALA1       -0.3186
      7 HB1         0.5754   -0.8226   -0.6144 H       1  ALA1        0.0250
      8 HB2         0.5811    0.9428   -0.5858 H       1  ALA1        0.0250
      9 HB3         0.6051    0.0268    0.9343 H       1  ALA1        0.0250
     10 HA          2.8971   -0.8664    0.3474 H       1  ALA1        0.0571
     11 HXT         2.1396   -1.5897   -1.9516 H       1  ALA1        0.2951
     12 H1          2.6898    2.0555    0.1837 H       1  ALA1        0.1189
     13 H2          4.0012    1.2358    0.6013 H       1  ALA1        0.1189
@<TRIPOS>BOND
     1     1     2    1
     2     2     3    1
     3     3     4    2
     4     3     5    1
     5     2     6    1
     6     1     7    1
     7     1     8    1
     8     1     9    1
     9     2    10    1
    10     5    11    1
    11     6    12    1
    12     6    13    1
