@<TRIPOS>MOLECULE
*****
 14 14 0 0 0
SMALL
GASTEIGER

@<TRIPOS>ATOM
      1 O           1.0484    0.1059   -0.0049 O.co2   1  UNL1       -0.5446
      2 C           2.3129    0.1024   -0.0839 C.2     1  UNL1        0.0717
      3 O           3.0151   -0.5532   -0.9219 O.co2   1  UNL1       -0.5446
      4 C           3.0714    0.9170    0.9352 C.ar    1  UNL1       -0.0027
      5 C           4.2817    1.5467    0.6084 C.ar    1  UNL1       -0.0529
      6 C           5.0665    2.1328    1.6039 C.ar    1  UNL1       -0.0611
      7 C           4.6156    2.1580    2.9237 C.ar    1  UNL1       -0.0617
      8 C           3.3835    1.5928    3.2497 C.ar    1  UNL1       -0.0611
      9 C           2.6146    0.9795    2.2599 C.ar    1  UNL1       -0.0529
     10 H           4.6158    1.5461   -0.4277 H       1  UNL1        0.0624
     11 H           6.0409    2.5386    1.3507 H       1  UNL1        0.0618
     12 H           5.2264    2.6108    3.6979 H       1  UNL1        0.0618
     13 H           3.0304    1.5951    4.2757 H       1  UNL1        0.0618
     14 H           1.6665    0.5072    2.5090 H       1  UNL1        0.0624
@<TRIPOS>UNITY_ATOM_ATTR
3 1
charge -1
@<TRIPOS>BOND
     1     1     2   ar
     2     2     3   ar
     3     2     4    1
     4     4     5   ar
     5     5     6   ar
     6     6     7   ar
     7     7     8   ar
     8     8     9   ar
     9     4     9   ar
    10     5    10    1
    11     6    11    1
    12     7    12    1
    13     8    13    1
    14     9    14    1
