@<TRIPOS>MOLECULE
*****
 13 12 0 0 0
SMALL
GASTEIGER

@<TRIPOS>ATOM
      1 CB          3.0661   -1.4419   -0.4120 C.3     1  ALA1       -0.0162
      2 CA          2.5876   -0.0735    0.0282 C.3     1  ALA1        0.0131
      3 N           1.0730   -0.1054    0.0664 N.4     1  ALA1        0.2247
      4 C           3.1061    1.0242   -0.9417 C.2     1  ALA1        0.0891
      5 O           2.1356    1.6457   -1.4746 O.co2   1  ALA1       -0.5442
      6 OXT         4.3479    1.1462   -1.0436 O.co2   1  ALA1       -0.5442
      7 HB1         4.1595   -1.4916   -0.4200 H       1  ALA1        0.0288
      8 HB2         2.7166   -1.6784   -1.4236 H       1  ALA1        0.0288
      9 HB3         2.6991   -2.2203    0.2650 H       1  ALA1        0.0288
     10 HA          2.9087    0.1556    1.0489 H       1  ALA1        0.0912
     11 H1          0.7612   -0.2067   -0.9101 H       1  ALA1        0.2000
     12 H2          0.7757    0.8558    0.2870 H       1  ALA1        0.2000
     13 H3          0.6656   -0.7989    0.6898 H       1  ALA1        0.2000
@<TRIPOS>UNITY_ATOM_ATTR
3 1
charge 1
6 1
charge -1
@<TRIPOS>BOND
     1     2     4    1
     2     4     5   ar
     3     4     6   ar
     4     2     3    1
     5     2     1    1
     6     1     7    1
     7     1     8    1
     8     1     9    1
     9     2    10    1
    10     3    11    1
    11     3    12    1
    12     3    13    1
